Version 4
SHEET 1 1836 680
WIRE -1088 -560 -1136 -560
WIRE -992 -560 -1088 -560
WIRE -864 -560 -928 -560
WIRE -800 -560 -864 -560
WIRE -1088 -480 -1088 -496
WIRE -960 -480 -960 -496
WIRE -960 -480 -1088 -480
WIRE -864 -480 -864 -496
WIRE -864 -480 -960 -480
WIRE -832 -400 -960 -400
WIRE 48 -400 -80 -400
WIRE 288 -400 128 -400
WIRE -1072 -384 -1120 -384
WIRE 576 -384 448 -384
WIRE 816 -384 640 -384
WIRE -1072 -368 -1072 -384
WIRE -896 -304 -896 -336
WIRE -960 -288 -960 -400
WIRE -928 -288 -960 -288
WIRE -832 -272 -832 -400
WIRE -832 -272 -864 -272
WIRE -736 -272 -832 -272
WIRE -1072 -256 -1072 -288
WIRE -928 -256 -1072 -256
WIRE 128 -256 112 -256
WIRE 656 -240 640 -240
WIRE -1072 -224 -1072 -256
WIRE 128 -224 128 -256
WIRE -176 -208 -288 -208
WIRE -80 -208 -80 -400
WIRE -80 -208 -112 -208
WIRE -64 -208 -80 -208
WIRE 32 -208 0 -208
WIRE 64 -208 32 -208
WIRE 96 -208 80 -208
WIRE 656 -208 656 -240
WIRE 288 -192 288 -400
WIRE 288 -192 160 -192
WIRE 336 -192 288 -192
WIRE 448 -192 448 -384
WIRE 448 -192 416 -192
WIRE 464 -192 448 -192
WIRE 560 -192 544 -192
WIRE 592 -192 560 -192
WIRE 624 -192 608 -192
WIRE 64 -176 64 -208
WIRE 96 -176 64 -176
WIRE 816 -176 816 -384
WIRE 816 -176 688 -176
WIRE 880 -176 816 -176
WIRE 592 -160 592 -192
WIRE 624 -160 592 -160
WIRE 128 -144 128 -160
WIRE 32 -128 32 -208
WIRE 656 -128 656 -144
WIRE -1072 -112 -1072 -144
WIRE 560 -112 560 -192
WIRE 80 -80 80 -208
WIRE 144 -80 80 -80
WIRE 176 -80 144 -80
WIRE 288 -80 288 -192
WIRE 288 -80 256 -80
WIRE 144 -64 144 -80
WIRE 608 -64 608 -192
WIRE 672 -64 608 -64
WIRE 704 -64 672 -64
WIRE 816 -64 816 -176
WIRE 816 -64 784 -64
WIRE 672 -48 672 -64
WIRE -1024 -16 -1088 -16
WIRE -1024 32 -1024 -16
WIRE -912 32 -944 32
WIRE 32 48 32 -48
WIRE 32 48 -160 48
WIRE 144 48 144 16
WIRE 144 48 32 48
WIRE 560 64 560 -48
WIRE 560 64 368 64
WIRE 672 64 672 32
WIRE 672 64 560 64
WIRE -624 256 -672 256
WIRE -672 288 -672 256
WIRE -672 400 -672 368
FLAG 128 -144 0
FLAG 112 -256 5V
IOPIN 112 -256 In
FLAG -160 48 VGND
IOPIN -160 48 In
FLAG 880 -176 filtered
FLAG -288 -208 VBeat
FLAG 656 -128 0
FLAG 640 -240 5V
IOPIN 640 -240 In
FLAG 368 64 VGND
IOPIN 368 64 In
FLAG -1136 -560 9V
IOPIN -1136 -560 In
FLAG -960 -480 0
FLAG -800 -560 5V
IOPIN -800 -560 Out
FLAG -736 -272 VGND
IOPIN -736 -272 Out
FLAG -1072 -112 0
FLAG -1120 -384 5V
IOPIN -1120 -384 In
FLAG -896 -240 0
FLAG -896 -336 5V
IOPIN -896 -336 In
FLAG -912 32 9V
IOPIN -912 32 Out
FLAG -1088 64 0
FLAG -672 400 0
FLAG -624 256 VBeat
SYMBOL cap -112 -224 R90
WINDOW 0 0 32 VBottom 2
WINDOW 3 32 32 VTop 2
SYMATTR InstName C1
SYMATTR Value 1.5µ
SYMBOL cap 0 -224 R90
WINDOW 0 0 32 VBottom 2
WINDOW 3 32 32 VTop 2
SYMATTR InstName C2
SYMATTR Value 1.5µ
SYMBOL res 144 -416 R90
WINDOW 0 0 56 VBottom 2
WINDOW 3 32 56 VTop 2
SYMATTR InstName R1
SYMATTR Value 130k
SYMBOL res 48 -32 R180
WINDOW 0 36 76 Left 2
WINDOW 3 36 40 Left 2
SYMATTR InstName R2
SYMATTR Value 130k
SYMBOL res 160 32 R180
WINDOW 0 36 76 Left 2
WINDOW 3 36 40 Left 2
SYMATTR InstName R3
SYMATTR Value 15k
SYMBOL res 272 -96 R90
WINDOW 0 0 56 VBottom 2
WINDOW 3 32 56 VTop 2
SYMATTR InstName R4
SYMATTR Value 22k
SYMBOL Opamps\\opamp2 128 -256 R0
SYMATTR InstName U3
SYMATTR Value TL081
SYMBOL res 688 48 R180
WINDOW 0 36 76 Left 2
WINDOW 3 36 40 Left 2
SYMATTR InstName R5
SYMATTR Value 15k
SYMBOL res 800 -80 R90
WINDOW 0 0 56 VBottom 2
WINDOW 3 32 56 VTop 2
SYMATTR InstName R6
SYMATTR Value 22k
SYMBOL Opamps\\opamp2 656 -240 R0
SYMATTR InstName U4
SYMATTR Value TL081
SYMBOL res 432 -208 R90
WINDOW 0 0 56 VBottom 2
WINDOW 3 32 56 VTop 2
SYMATTR InstName R7
SYMATTR Value 110K
SYMBOL res 560 -208 R90
WINDOW 0 0 56 VBottom 2
WINDOW 3 32 56 VTop 2
SYMATTR InstName R8
SYMATTR Value 110k
SYMBOL cap 640 -400 R90
WINDOW 0 0 32 VBottom 2
WINDOW 3 32 32 VTop 2
SYMATTR InstName C3
SYMATTR Value 560n
SYMBOL cap 576 -48 R180
WINDOW 0 24 56 Left 2
WINDOW 3 24 8 Left 2
SYMATTR InstName C4
SYMATTR Value 560n
SYMBOL LM7805 -960 -544 R0
SYMATTR InstName U1
SYMBOL cap -1104 -560 R0
SYMATTR InstName C5
SYMATTR Value 0.33µ
SYMBOL cap -880 -560 R0
SYMATTR InstName C6
SYMATTR Value 0.1µ
SYMBOL res -1088 -384 R0
SYMATTR InstName Rvgnd1
SYMATTR Value 200k
SYMBOL res -1088 -240 R0
SYMATTR InstName Rvgnd2
SYMATTR Value 200k
SYMBOL Opamps\\opamp2 -896 -336 R0
SYMATTR InstName U2
SYMATTR Value TL081
SYMBOL voltage -672 272 R0
WINDOW 123 48 51 Left 2
WINDOW 39 0 0 Left 0
WINDOW 3 -89 253 Left 2
WINDOW 0 -13 60 Left 2
SYMATTR Value2 AC 1
SYMATTR Value ""
SYMATTR InstName V1
SYMBOL voltage -1088 -32 R0
WINDOW 123 24 44 Left 2
WINDOW 39 0 0 Left 0
WINDOW 3 -46 76 Left 2
WINDOW 0 -13 57 Left 2
SYMATTR Value 9
SYMATTR InstName V2
SYMBOL res -928 16 R90
WINDOW 0 -9 30 VBottom 2
WINDOW 3 34 56 VTop 2
SYMATTR InstName R_Sense1
SYMATTR Value 0.010
TEXT -480 -712 Left 2 !.incl LM78XX_RS.lib
TEXT -480 -688 Left 2 !.incl TL081.lib
TEXT -480 -664 Left 2 !.incl TLC2272.LIB
TEXT -480 -640 Left 2 !.ac dec 10k 0.1 1k
