Version 4
SHEET 1 880 680
WIRE 80 112 0 112
WIRE 192 112 160 112
WIRE 272 112 192 112
WIRE 0 128 0 112
WIRE 192 128 192 112
WIRE 0 240 0 208
WIRE 96 240 0 240
WIRE 192 240 192 192
WIRE 192 240 96 240
WIRE 96 272 96 240
FLAG 96 272 0
FLAG 272 112 out
SYMBOL res 176 96 R90
WINDOW 0 0 56 VBottom 2
WINDOW 3 32 56 VTop 2
SYMATTR InstName R1
SYMATTR Value 47k
SYMBOL cap 176 128 R0
SYMATTR InstName C1
SYMATTR Value 270n
SYMBOL voltage 0 112 R0
WINDOW 123 0 0 Left 0
WINDOW 39 0 0 Left 0
SYMATTR InstName V1
SYMATTR Value PWL(0 0 50m 400m)
TEXT -32 296 Left 2 !.tran 0 500m 0 1u
