Version 4
SHEET 1 1824 680
WIRE 176 -1520 80 -1520
WIRE 352 -1520 240 -1520
WIRE 80 -1424 80 -1520
WIRE 80 -1424 0 -1424
WIRE 176 -1424 80 -1424
WIRE 352 -1424 352 -1520
WIRE 352 -1424 256 -1424
WIRE 640 -1424 352 -1424
WIRE 0 -1408 0 -1424
WIRE 80 -1312 80 -1424
WIRE 112 -1312 80 -1312
WIRE 352 -1312 320 -1312
WIRE -112 -1280 -192 -1280
WIRE 80 -1280 -112 -1280
WIRE 432 -1280 320 -1280
WIRE 512 -1280 432 -1280
WIRE 640 -1280 640 -1424
WIRE 640 -1280 592 -1280
WIRE 704 -1280 640 -1280
WIRE 832 -1280 784 -1280
WIRE 928 -1280 832 -1280
WIRE -112 -1248 -112 -1280
WIRE 80 -1248 80 -1280
WIRE 112 -1248 80 -1248
WIRE 352 -1248 352 -1312
WIRE 352 -1248 320 -1248
WIRE 432 -1248 432 -1280
WIRE 640 -1248 640 -1280
WIRE 832 -1248 832 -1280
WIRE 352 -1200 352 -1248
WIRE 352 -1200 208 -1200
WIRE -112 -1136 -112 -1184
WIRE 0 -1136 0 -1328
WIRE 0 -1136 -112 -1136
WIRE 208 -1136 208 -1200
WIRE 208 -1136 0 -1136
WIRE 432 -1136 432 -1184
WIRE 432 -1136 208 -1136
WIRE 640 -1136 640 -1184
WIRE 640 -1136 432 -1136
WIRE 832 -1136 832 -1184
WIRE 832 -1136 640 -1136
WIRE 208 -1088 208 -1136
WIRE -1840 -1072 -1888 -1072
WIRE -1248 -1072 -1280 -1072
WIRE -2032 -1056 -2080 -1056
WIRE -1936 -1056 -1984 -1056
WIRE -1888 -1056 -1888 -1072
WIRE -1344 -1056 -1488 -1056
WIRE -1152 -1056 -1216 -1056
WIRE -624 -1056 -672 -1056
WIRE -1216 -1040 -1216 -1056
WIRE -1216 -1040 -1280 -1040
WIRE -624 -1040 -624 -1056
WIRE -1488 -1024 -1488 -1056
WIRE -1152 -1024 -1152 -1056
WIRE -2032 -976 -2032 -1056
WIRE -1984 -976 -2032 -976
WIRE -1936 -976 -1936 -1056
WIRE -1888 -976 -1936 -976
WIRE -2080 -960 -2080 -976
WIRE -1488 -928 -1488 -960
WIRE -1248 -928 -1248 -1072
WIRE -1248 -928 -1488 -928
WIRE -1152 -928 -1152 -960
WIRE -1152 -928 -1248 -928
WIRE -1248 -912 -1248 -928
WIRE -2032 -768 -2096 -768
WIRE -1168 -752 -1264 -752
WIRE -944 -752 -1088 -752
WIRE -2032 -720 -2032 -768
WIRE -1920 -720 -1952 -720
WIRE -1008 -720 -1024 -720
WIRE -1008 -688 -1008 -720
WIRE -1088 -672 -1088 -752
WIRE -1040 -672 -1088 -672
WIRE -944 -656 -944 -752
WIRE -944 -656 -976 -656
WIRE -800 -656 -944 -656
WIRE -640 -656 -720 -656
WIRE -592 -656 -640 -656
WIRE -496 -656 -512 -656
WIRE -1168 -640 -1168 -672
WIRE -1040 -640 -1168 -640
WIRE -1888 -608 -1936 -608
WIRE -1168 -608 -1168 -640
WIRE -848 -560 -864 -560
WIRE -560 -560 -576 -560
WIRE -560 -528 -560 -560
WIRE -640 -512 -640 -656
WIRE -592 -512 -640 -512
WIRE -1168 -496 -1168 -528
WIRE -496 -496 -496 -656
WIRE -496 -496 -528 -496
WIRE -432 -496 -496 -496
WIRE -336 -496 -352 -496
WIRE -848 -480 -880 -480
WIRE -736 -480 -848 -480
WIRE -640 -480 -736 -480
WIRE -592 -480 -640 -480
WIRE -336 -480 -336 -496
WIRE -848 -448 -848 -480
WIRE -736 -448 -736 -480
WIRE -640 -448 -640 -480
WIRE -336 -400 -336 -416
WIRE -848 -352 -848 -368
WIRE -800 -352 -848 -352
WIRE -736 -352 -736 -384
WIRE -736 -352 -800 -352
WIRE -640 -352 -640 -368
WIRE -640 -352 -736 -352
WIRE -800 -336 -800 -352
FLAG -2080 -960 0
FLAG -1840 -1072 Stimulus
FLAG -1920 -720 9V
IOPIN -1920 -720 Out
FLAG -2096 -688 0
FLAG -1520 -1056 9V
IOPIN -1520 -1056 In
FLAG -1888 -608 Vout
IOPIN -1888 -608 Out
FLAG -1248 -912 0
FLAG -1088 -1056 5V
IOPIN -1088 -1056 Out
FLAG -1264 -640 Vref-
FLAG -1168 -496 0
FLAG -1008 -624 0
FLAG -560 -464 0
FLAG -256 -496 Vout
IOPIN -256 -496 Out
FLAG -976 -480 Stimulus
IOPIN -976 -480 In
FLAG -800 -336 0
FLAG -336 -400 0
FLAG -192 -1280 9V
IOPIN -192 -1280 In
FLAG 208 -1088 0
FLAG 928 -1280 5V
IOPIN 928 -1280 Out
FLAG -672 -1056 5V
IOPIN -672 -1056 In
FLAG -624 -960 0
SYMBOL voltage -1984 -1072 R0
WINDOW 123 0 0 Left 0
WINDOW 39 0 0 Left 0
WINDOW 3 -89 197 Left 2
WINDOW 0 -13 54 Left 2
SYMATTR Value PWL file=PWLinput.csv
SYMATTR InstName V2
SYMBOL voltage -1888 -1072 R0
WINDOW 123 24 44 Left 2
WINDOW 39 0 0 Left 0
WINDOW 3 -386 233 Left 2
WINDOW 0 -11 56 Left 2
SYMATTR Value SINE({sineOffset} {sineAmplitude} {sineFreq})
SYMATTR InstName V3
SYMBOL voltage -2080 -1072 R0
WINDOW 123 0 0 Left 0
WINDOW 39 0 0 Left 0
WINDOW 3 3 160 Left 2
WINDOW 0 -13 55 Left 2
SYMATTR Value {dcAmplitude}
SYMATTR InstName V1
SYMBOL voltage -2096 -784 R0
WINDOW 123 24 44 Left 2
WINDOW 39 0 0 Left 0
WINDOW 3 -46 76 Left 2
WINDOW 0 -13 57 Left 2
SYMATTR Value 9
SYMATTR InstName V4
SYMBOL res -1936 -736 R90
WINDOW 0 -9 30 VBottom 2
WINDOW 3 34 56 VTop 2
SYMATTR InstName R_Sense
SYMATTR Value 0.010
SYMBOL AutoGenerated\\LM7805 -1312 -1056 R0
SYMATTR InstName U1
SYMBOL cap -1504 -1024 R0
SYMATTR InstName C1
SYMATTR Value 0.33µ
SYMBOL cap -1168 -1024 R0
SYMATTR InstName C2
SYMATTR Value 0.1µ
SYMBOL Opamps\\opamp2 -1008 -720 R0
SYMATTR InstName U2
SYMATTR Value TL081
SYMBOL Opamps\\opamp2 -560 -560 R0
SYMATTR InstName U3
SYMATTR Value TLC2272
SYMBOL res -1184 -624 R0
SYMATTR InstName R2
SYMATTR Value 300
SYMBOL res -1184 -768 R0
SYMATTR InstName R1
SYMATTR Value 47k
SYMBOL res -704 -672 R90
WINDOW 0 0 56 VBottom 2
WINDOW 3 32 56 VTop 2
SYMATTR InstName Rg
SYMATTR Value 3.9k
SYMBOL res -496 -672 R90
WINDOW 0 0 56 VBottom 2
WINDOW 3 32 56 VTop 2
SYMATTR InstName Rf
SYMATTR Value 110k
SYMBOL res -864 -576 R0
SYMATTR InstName Rb1
SYMATTR Value 82k
SYMBOL res -864 -464 R0
SYMATTR InstName Rb2
SYMATTR Value 82k
SYMBOL cap -752 -448 R0
SYMATTR InstName Cs
SYMATTR Value 2.2µ
SYMBOL res -864 -496 R90
WINDOW 0 0 56 VBottom 2
WINDOW 3 32 56 VTop 2
SYMATTR InstName Rs
SYMATTR Value 10k
SYMBOL res -336 -512 R90
WINDOW 0 0 56 VBottom 2
WINDOW 3 32 56 VTop 2
SYMATTR InstName R_lpf
SYMATTR Value 47k
SYMBOL cap -352 -480 R0
SYMATTR InstName C_lpf
SYMATTR Value 270n
SYMBOL res -656 -464 R0
SYMATTR InstName R_vg
SYMATTR Value 300k
SYMBOL cap -128 -1248 R0
SYMATTR InstName Cin
SYMATTR Value 120µ
SYMBOL cap 624 -1248 R0
SYMATTR InstName Cout
SYMATTR Value 120µ
SYMBOL cap 816 -1248 R0
SYMATTR InstName Cfilter
SYMATTR Value 180µ
SYMBOL ind 800 -1296 R90
WINDOW 0 5 56 VBottom 2
WINDOW 3 32 56 VTop 2
SYMATTR InstName Lfilter
SYMATTR Value 3µ
SYMBOL ind 608 -1296 R90
WINDOW 0 5 56 VBottom 2
WINDOW 3 32 56 VTop 2
SYMATTR InstName L1
SYMATTR Value 100µ
SYMBOL schottky 448 -1184 R180
WINDOW 0 24 64 Left 2
WINDOW 3 24 0 Left 2
SYMATTR InstName D1
SYMATTR Value DN5822
SYMBOL AutoGenerated\\LM2595_ADJ_TRANS 208 -1280 R0
SYMATTR InstName U11
SYMBOL cap 240 -1536 R90
WINDOW 0 0 32 VBottom 2
WINDOW 3 32 32 VTop 2
SYMATTR InstName Cff
SYMATTR Value 10n
SYMBOL res 272 -1440 R90
WINDOW 0 0 56 VBottom 2
WINDOW 3 32 56 VTop 2
SYMATTR InstName R_2
SYMATTR Value 3k
SYMBOL res 16 -1312 R180
WINDOW 0 36 76 Left 2
WINDOW 3 36 40 Left 2
SYMATTR InstName R_1
SYMATTR Value 1k
SYMBOL res -640 -1056 R0
SYMATTR InstName R3
SYMATTR Value 50
TEXT -2080 -1120 Left 2 !.tran 0 {transtop} 0 {timestep}
TEXT -1952 -1168 Left 2 !.include E344cfg.txt
TEXT -2288 -1384 Left 2 ;Don't change these -- used for auto-assessments.\nYou may modify input files while developing.\nFor submission: \n  * Use only 9V supply \n  * Connect "Stimulus" to your input\n  * Connect "Vout" to your output.\n  * Only one label name per net.
TEXT -2280 -1168 Left 2 ;Config file:
TEXT -2280 -1120 Left 2 ;Analysis setup:
TEXT -2272 -744 Left 2 ;Battery
TEXT -2280 -1032 Left 2 ;Sensor-\nemulating \nstimulus
TEXT -2272 -608 Left 2 ;Assessed nets:\nConnect to your outputs
TEXT -1552 -1400 Left 2 ;G. Marais.,  21642818\nV(0degV) = 620 mV\ndeltaV/degV = 20 mV
TEXT -1552 -1304 Left 2 !.include LM78XX_RS.lib
TEXT -1552 -1280 Left 2 !.include TLC2272.LIB
TEXT -1552 -1256 Left 2 !.include TL081.LIB
TEXT -1072 -1416 Left 2 !;meas Pout AVG V(5V)*I(R_load)
TEXT -1072 -1352 Left 2 !.meas Pin AVG -V(9V)*I(V4)
TEXT -1072 -1272 Left 2 !;meas Eff param Pout/Pin
TEXT -1072 -1392 Left 2 !;meas Iout AVG I(R_load)
TEXT -1072 -1328 Left 2 !.meas Iin AVG -I(V4)
TEXT -1552 -1232 Left 2 !.include LM2595_ADJ_TRANS.LIB
TEXT -1552 -1208 Left 2 !.include diode.lib
LINE Normal -1792 -1008 -1856 -1008 2
LINE Normal -1792 -864 -1792 -1008 2
LINE Normal -1808 -880 -1792 -864 2
LINE Normal -1792 -864 -1808 -880 2
LINE Normal -1776 -880 -1792 -864 2
LINE Normal -2128 -1008 -2112 -1008 2
LINE Normal -2128 -928 -2128 -1008 2
LINE Normal -2128 -912 -2128 -928 2
LINE Normal -2096 -912 -2128 -912 2
LINE Normal -2112 -928 -2096 -912 2
LINE Normal -2096 -912 -2112 -928 2
LINE Normal -2112 -896 -2096 -912 2
LINE Normal -1968 -944 -1968 -992 2
LINE Normal -1856 -944 -1968 -944 2
LINE Normal -1856 -896 -1856 -944 2
LINE Normal -1872 -912 -1856 -896 2
LINE Normal -1856 -896 -1872 -912 2
LINE Normal -1840 -912 -1856 -896 2
LINE Normal -2304 -544 -2304 -1408 1
LINE Normal -1680 -1408 -1680 -544 1
LINE Normal -1680 -544 -2304 -544 1
LINE Normal -1680 -1408 -2304 -1408 1
