Version 4
SHEET 1 1824 680
WIRE -208 -1312 -240 -1312
WIRE -448 -1296 -480 -1296
WIRE -304 -1296 -448 -1296
WIRE -112 -1296 -176 -1296
WIRE -48 -1296 -112 -1296
WIRE -176 -1280 -176 -1296
WIRE -176 -1280 -240 -1280
WIRE -448 -1264 -448 -1296
WIRE -112 -1264 -112 -1296
WIRE -448 -1168 -448 -1200
WIRE -208 -1168 -208 -1312
WIRE -208 -1168 -448 -1168
WIRE -112 -1168 -112 -1200
WIRE -112 -1168 -208 -1168
WIRE -208 -1152 -208 -1168
WIRE -1392 -1120 -1488 -1120
WIRE -1168 -1120 -1312 -1120
WIRE -1232 -1088 -1248 -1088
WIRE -1840 -1072 -1888 -1072
WIRE -2032 -1056 -2080 -1056
WIRE -1936 -1056 -1984 -1056
WIRE -1888 -1056 -1888 -1072
WIRE -1232 -1056 -1232 -1088
WIRE -1312 -1040 -1312 -1120
WIRE -1264 -1040 -1312 -1040
WIRE -1168 -1024 -1168 -1120
WIRE -1168 -1024 -1200 -1024
WIRE -1024 -1024 -1168 -1024
WIRE -864 -1024 -944 -1024
WIRE -816 -1024 -864 -1024
WIRE -720 -1024 -736 -1024
WIRE -1392 -1008 -1392 -1040
WIRE -1392 -1008 -1488 -1008
WIRE -1264 -1008 -1392 -1008
WIRE -2032 -976 -2032 -1056
WIRE -1984 -976 -2032 -976
WIRE -1936 -976 -1936 -1056
WIRE -1888 -976 -1936 -976
WIRE -1392 -976 -1392 -1008
WIRE -2080 -960 -2080 -976
WIRE -1072 -928 -1088 -928
WIRE -784 -928 -800 -928
WIRE -784 -896 -784 -928
WIRE -864 -880 -864 -1024
WIRE -816 -880 -864 -880
WIRE -1392 -864 -1392 -896
WIRE -720 -864 -720 -1024
WIRE -720 -864 -752 -864
WIRE -656 -864 -720 -864
WIRE -560 -864 -576 -864
WIRE -480 -864 -560 -864
WIRE -1184 -848 -1200 -848
WIRE -1072 -848 -1104 -848
WIRE -960 -848 -1072 -848
WIRE -864 -848 -960 -848
WIRE -816 -848 -864 -848
WIRE -560 -848 -560 -864
WIRE -1072 -816 -1072 -848
WIRE -960 -816 -960 -848
WIRE -864 -816 -864 -848
WIRE -2032 -768 -2096 -768
WIRE -560 -768 -560 -784
WIRE -2032 -720 -2032 -768
WIRE -1920 -720 -1952 -720
WIRE -1072 -720 -1072 -736
WIRE -1024 -720 -1072 -720
WIRE -960 -720 -960 -752
WIRE -960 -720 -1024 -720
WIRE -864 -720 -864 -736
WIRE -864 -720 -960 -720
WIRE -1024 -704 -1024 -720
WIRE -1888 -608 -1936 -608
FLAG -2080 -960 0
FLAG -1840 -1072 Stimulus
FLAG -1920 -720 9V
IOPIN -1920 -720 Out
FLAG -2096 -688 0
FLAG -480 -1296 9V
IOPIN -480 -1296 In
FLAG -1888 -608 Vout
IOPIN -1888 -608 Out
FLAG -208 -1152 0
FLAG -48 -1296 5V
IOPIN -48 -1296 Out
FLAG -1488 -1008 Vref-
FLAG -1392 -864 0
FLAG -1232 -992 0
FLAG -784 -832 0
FLAG -480 -864 Vout
IOPIN -480 -864 Out
FLAG -1200 -848 Stimulus
IOPIN -1200 -848 In
FLAG -1024 -704 0
FLAG -560 -768 0
FLAG -1488 -1120 5V
IOPIN -1488 -1120 In
FLAG -1248 -1088 5V
IOPIN -1248 -1088 In
FLAG -1088 -928 5V
IOPIN -1088 -928 In
FLAG -800 -928 5V
IOPIN -800 -928 In
SYMBOL voltage -1984 -1072 R0
WINDOW 123 0 0 Left 0
WINDOW 39 0 0 Left 0
WINDOW 3 -89 197 Left 2
WINDOW 0 -13 54 Left 2
SYMATTR Value PWL file=PWLinput.csv
SYMATTR InstName V2
SYMBOL voltage -1888 -1072 R0
WINDOW 123 24 44 Left 2
WINDOW 39 0 0 Left 0
WINDOW 3 -386 233 Left 2
WINDOW 0 -11 56 Left 2
SYMATTR Value SINE({sineOffset} {sineAmplitude} {sineFreq})
SYMATTR InstName V3
SYMBOL voltage -2080 -1072 R0
WINDOW 123 0 0 Left 0
WINDOW 39 0 0 Left 0
WINDOW 3 3 160 Left 2
WINDOW 0 -13 55 Left 2
SYMATTR Value {dcAmplitude}
SYMATTR InstName V1
SYMBOL voltage -2096 -784 R0
WINDOW 123 24 44 Left 2
WINDOW 39 0 0 Left 0
WINDOW 3 -46 76 Left 2
WINDOW 0 -13 57 Left 2
SYMATTR Value 9
SYMATTR InstName V4
SYMBOL res -1936 -736 R90
WINDOW 0 -9 30 VBottom 2
WINDOW 3 34 56 VTop 2
SYMATTR InstName R_Sense
SYMATTR Value 0.010
SYMBOL AutoGenerated\\LM7805 -272 -1296 R0
SYMATTR InstName U1
SYMBOL cap -464 -1264 R0
SYMATTR InstName C1
SYMATTR Value 0.33µ
SYMBOL cap -128 -1264 R0
SYMATTR InstName C2
SYMATTR Value 0.1µ
SYMBOL Opamps\\opamp2 -1232 -1088 R0
SYMATTR InstName U2
SYMATTR Value TL081
SYMBOL Opamps\\opamp2 -784 -928 R0
SYMATTR InstName U3
SYMATTR Value TLC2272
SYMBOL res -1408 -992 R0
SYMATTR InstName R2
SYMATTR Value 300
SYMBOL res -1408 -1136 R0
SYMATTR InstName R1
SYMATTR Value 47k
SYMBOL res -928 -1040 R90
WINDOW 0 0 56 VBottom 2
WINDOW 3 32 56 VTop 2
SYMATTR InstName Rg
SYMATTR Value 3.9k
SYMBOL res -720 -1040 R90
WINDOW 0 0 56 VBottom 2
WINDOW 3 32 56 VTop 2
SYMATTR InstName Rf
SYMATTR Value 110k
SYMBOL res -1088 -944 R0
SYMATTR InstName Rb1
SYMATTR Value 82k
SYMBOL res -1088 -832 R0
SYMATTR InstName Rb2
SYMATTR Value 82k
SYMBOL cap -976 -816 R0
SYMATTR InstName Cs
SYMATTR Value 2.2µ
SYMBOL res -1088 -864 R90
WINDOW 0 0 56 VBottom 2
WINDOW 3 32 56 VTop 2
SYMATTR InstName Rs
SYMATTR Value 10k
SYMBOL res -560 -880 R90
WINDOW 0 0 56 VBottom 2
WINDOW 3 32 56 VTop 2
SYMATTR InstName R_lpf
SYMATTR Value 47k
SYMBOL cap -576 -848 R0
SYMATTR InstName C_lpf
SYMATTR Value 270n
SYMBOL res -880 -832 R0
SYMATTR InstName R_vg
SYMATTR Value 300k
TEXT -2080 -1120 Left 2 !.tran 0 {transtop} 0 {timestep}
TEXT -1952 -1168 Left 2 !.include E344cfg.txt
TEXT -2288 -1384 Left 2 ;Don't change these -- used for auto-assessments.\nYou may modify input files while developing.\nFor submission: \n  * Use only 9V supply \n  * Connect "Stimulus" to your input\n  * Connect "Vout" to your output.\n  * Only one label name per net.
TEXT -2280 -1168 Left 2 ;Config file:
TEXT -2280 -1120 Left 2 ;Analysis setup:
TEXT -2272 -744 Left 2 ;Battery
TEXT -2280 -1032 Left 2 ;Sensor-\nemulating \nstimulus
TEXT -2272 -608 Left 2 ;Assessed nets:\nConnect to your outputs
TEXT -1552 -1400 Left 2 ;G. Marais.,  21642818\nV(0degV) = 620 mV\ndeltaV/degV = 20 mV
TEXT -1552 -1304 Left 2 !.include LM78XX_RS.lib
TEXT -1552 -1280 Left 2 !.include TLC2272.LIB
TEXT -1552 -1256 Left 2 !.include TL081.LIB
TEXT -1120 -1376 Left 2 !;meas Pout AVG V(5V)*I(R_load)
TEXT -1120 -1232 Left 2 !;meas Eff param Pout/Pin
TEXT -1120 -1352 Left 2 !;meas Iout AVG I(R_load)
TEXT -1552 -1232 Left 2 !.include LM2595_ADJ_TRANS.LIB
TEXT -1120 -1312 Left 2 !.meas Pin AVG -V(9V)*I(R_sense)
TEXT -1120 -1288 Left 2 !.meas Iin AVG -I(R_sense)
LINE Normal -1792 -1008 -1856 -1008 2
LINE Normal -1792 -864 -1792 -1008 2
LINE Normal -1808 -880 -1792 -864 2
LINE Normal -1792 -864 -1808 -880 2
LINE Normal -1776 -880 -1792 -864 2
LINE Normal -2128 -1008 -2112 -1008 2
LINE Normal -2128 -928 -2128 -1008 2
LINE Normal -2128 -912 -2128 -928 2
LINE Normal -2096 -912 -2128 -912 2
LINE Normal -2112 -928 -2096 -912 2
LINE Normal -2096 -912 -2112 -928 2
LINE Normal -2112 -896 -2096 -912 2
LINE Normal -1968 -944 -1968 -992 2
LINE Normal -1856 -944 -1968 -944 2
LINE Normal -1856 -896 -1856 -944 2
LINE Normal -1872 -912 -1856 -896 2
LINE Normal -1856 -896 -1872 -912 2
LINE Normal -1840 -912 -1856 -896 2
LINE Normal -2304 -544 -2304 -1408 1
LINE Normal -1680 -1408 -1680 -544 1
LINE Normal -1680 -544 -2304 -544 1
LINE Normal -1680 -1408 -2304 -1408 1
